<?xml version="1.0" encoding="UTF-8"?>

<!-- generated on 2026-02-15T02:41:25.676231+05:30 by Eclipse SUMO netedit 1.26.0
<neteditConfiguration xmlns:xsi="http://www.w3.org/2001/XMLSchema-instance" xsi:noNamespaceSchemaLocation="http://sumo.dlr.de/xsd/neteditConfiguration.xsd">

    <input>
        <sumo-net-file value="envi/network.net.xml"/>
    </input>

    <output>
        <output-file value="envi/network.net.xml"/>
    </output>

    <processing>
        <geometry.min-radius.fix.railways value="false"/>
        <geometry.avoid-overlap value="false"/>
        <geometry.max-grade.fix value="false"/>
        <offset.disable-normalization value="true"/>
        <lefthand value="0"/>
    </processing>

    <junctions>
        <no-turnarounds value="true"/>
        <junctions.corner-detail value="5"/>
        <junctions.limit-turn-speed value="5.50"/>
        <rectangular-lane-cut value="0"/>
    </junctions>

    <pedestrian>
        <walkingareas value="0"/>
    </pedestrian>

</neteditConfiguration>
-->

<net version="1.20" junctionCornerDetail="5" limitTurnSpeed="5.50" avoidOverlap="0" xmlns:xsi="http://www.w3.org/2001/XMLSchema-instance" xsi:noNamespaceSchemaLocation="http://sumo.dlr.de/xsd/net_file.xsd">

    <location netOffset="0.00,0.00" convBoundary="0.00,0.00,200.00,200.00" origBoundary="0.00,0.00,200.00,200.00" projParameter="!"/>

    <edge id=":A0_0" function="internal">
        <lane id=":A0_0_0" index="0" speed="6.51" length="9.03" shape="98.40,107.20 98.05,104.75 97.00,103.00 95.25,101.95 92.80,101.60"/>
    </edge>
    <edge id=":A0_1" function="internal">
        <lane id=":A0_1_0" index="0" speed="13.89" length="14.40" shape="98.40,107.20 98.40,92.80"/>
    </edge>
    <edge id=":A0_2" function="internal">
        <lane id=":A0_2_0" index="0" speed="8.00" length="4.07" shape="98.40,107.20 98.95,103.35 99.04,103.20"/>
    </edge>
    <edge id=":A0_3" function="internal">
        <lane id=":A0_3_0" index="0" speed="3.65" length="1.44" shape="98.40,107.20 99.20,106.00"/>
    </edge>
    <edge id=":A0_16" function="internal">
        <lane id=":A0_16_0" index="0" speed="8.00" length="10.13" shape="99.04,103.20 100.60,100.60 103.35,98.95 107.20,98.40"/>
    </edge>
    <edge id=":A0_17" function="internal">
        <lane id=":A0_17_0" index="0" speed="3.65" length="3.23" shape="99.20,106.00 100.00,105.60 100.80,106.00 101.60,107.20"/>
    </edge>
    <edge id=":A0_4" function="internal">
        <lane id=":A0_4_0" index="0" speed="6.51" length="9.03" shape="107.20,101.60 104.75,101.95 103.00,103.00 101.95,104.75 101.60,107.20"/>
    </edge>
    <edge id=":A0_5" function="internal">
        <lane id=":A0_5_0" index="0" speed="13.89" length="14.40" shape="107.20,101.60 92.80,101.60"/>
    </edge>
    <edge id=":A0_6" function="internal">
        <lane id=":A0_6_0" index="0" speed="8.00" length="4.07" shape="107.20,101.60 103.35,101.05 103.20,100.96"/>
    </edge>
    <edge id=":A0_7" function="internal">
        <lane id=":A0_7_0" index="0" speed="3.65" length="1.44" shape="107.20,101.60 106.00,100.80"/>
    </edge>
    <edge id=":A0_18" function="internal">
        <lane id=":A0_18_0" index="0" speed="8.00" length="10.13" shape="103.20,100.96 100.60,99.40 98.95,96.65 98.40,92.80"/>
    </edge>
    <edge id=":A0_19" function="internal">
        <lane id=":A0_19_0" index="0" speed="3.65" length="3.23" shape="106.00,100.80 105.60,100.00 106.00,99.20 107.20,98.40"/>
    </edge>
    <edge id=":A0_8" function="internal">
        <lane id=":A0_8_0" index="0" speed="6.51" length="9.03" shape="101.60,92.80 101.95,95.25 103.00,97.00 104.75,98.05 107.20,98.40"/>
    </edge>
    <edge id=":A0_9" function="internal">
        <lane id=":A0_9_0" index="0" speed="13.89" length="14.40" shape="101.60,92.80 101.60,107.20"/>
    </edge>
    <edge id=":A0_10" function="internal">
        <lane id=":A0_10_0" index="0" speed="8.00" length="4.07" shape="101.60,92.80 101.05,96.65 100.96,96.80"/>
    </edge>
    <edge id=":A0_11" function="internal">
        <lane id=":A0_11_0" index="0" speed="3.65" length="1.44" shape="101.60,92.80 100.80,94.00"/>
    </edge>
    <edge id=":A0_20" function="internal">
        <lane id=":A0_20_0" index="0" speed="8.00" length="10.13" shape="100.96,96.80 99.40,99.40 96.65,101.05 92.80,101.60"/>
    </edge>
    <edge id=":A0_21" function="internal">
        <lane id=":A0_21_0" index="0" speed="3.65" length="3.23" shape="100.80,94.00 100.00,94.40 99.20,94.00 98.40,92.80"/>
    </edge>
    <edge id=":A0_12" function="internal">
        <lane id=":A0_12_0" index="0" speed="6.51" length="9.03" shape="92.80,98.40 95.25,98.05 97.00,97.00 98.05,95.25 98.40,92.80"/>
    </edge>
    <edge id=":A0_13" function="internal">
        <lane id=":A0_13_0" index="0" speed="13.89" length="14.40" shape="92.80,98.40 107.20,98.40"/>
    </edge>
    <edge id=":A0_14" function="internal">
        <lane id=":A0_14_0" index="0" speed="8.00" length="4.07" shape="92.80,98.40 96.65,98.95 96.80,99.04"/>
    </edge>
    <edge id=":A0_15" function="internal">
        <lane id=":A0_15_0" index="0" speed="3.65" length="1.44" shape="92.80,98.40 94.00,99.20"/>
    </edge>
    <edge id=":A0_22" function="internal">
        <lane id=":A0_22_0" index="0" speed="8.00" length="10.13" shape="96.80,99.04 99.40,100.60 101.05,103.35 101.60,107.20"/>
    </edge>
    <edge id=":A0_23" function="internal">
        <lane id=":A0_23_0" index="0" speed="3.65" length="3.23" shape="94.00,99.20 94.40,100.00 94.00,100.80 92.80,101.60"/>
    </edge>
    <edge id=":bottom0_0" function="internal">
        <lane id=":bottom0_0_0" index="0" speed="3.65" length="4.67" shape="98.40,0.00 99.20,-1.20 100.00,-1.60 100.80,-1.20 101.60,0.00"/>
    </edge>
    <edge id=":left0_0" function="internal">
        <lane id=":left0_0_0" index="0" speed="3.65" length="4.67" shape="0.00,101.60 -1.20,100.80 -1.60,100.00 -1.20,99.20 0.00,98.40"/>
    </edge>
    <edge id=":right0_0" function="internal">
        <lane id=":right0_0_0" index="0" speed="3.65" length="4.67" shape="200.00,98.40 201.20,99.20 201.60,100.00 201.20,100.80 200.00,101.60"/>
    </edge>
    <edge id=":top0_0" function="internal">
        <lane id=":top0_0_0" index="0" speed="3.65" length="4.67" shape="101.60,200.00 100.80,201.20 100.00,201.60 99.20,201.20 98.40,200.00"/>
    </edge>

    <edge id="E_in" from="right0" to="A0" priority="-1">
        <lane id="E_in_0" index="0" speed="13.89" length="92.80" shape="200.00,101.60 107.20,101.60"/>
    </edge>
    <edge id="E_out" from="A0" to="right0" priority="-1">
        <lane id="E_out_0" index="0" speed="13.89" length="92.80" shape="107.20,98.40 200.00,98.40"/>
    </edge>
    <edge id="N_in" from="top0" to="A0" priority="-1">
        <lane id="N_in_0" index="0" speed="13.89" length="92.80" shape="98.40,200.00 98.40,107.20"/>
    </edge>
    <edge id="N_out" from="A0" to="top0" priority="-1">
        <lane id="N_out_0" index="0" speed="13.89" length="92.80" shape="101.60,107.20 101.60,200.00"/>
    </edge>
    <edge id="S_in" from="bottom0" to="A0" priority="-1">
        <lane id="S_in_0" index="0" speed="13.89" length="92.80" shape="101.60,0.00 101.60,92.80"/>
    </edge>
    <edge id="S_out" from="A0" to="bottom0" priority="-1">
        <lane id="S_out_0" index="0" speed="13.89" length="92.80" shape="98.40,92.80 98.40,0.00"/>
    </edge>
    <edge id="W_in" from="left0" to="A0" priority="-1">
        <lane id="W_in_0" index="0" speed="13.89" length="92.80" shape="0.00,98.40 92.80,98.40"/>
    </edge>
    <edge id="W_out" from="A0" to="left0" priority="-1">
        <lane id="W_out_0" index="0" speed="13.89" length="92.80" shape="92.80,101.60 0.00,101.60"/>
    </edge>

    <tlLogic id="A0" type="static" programID="0" offset="0">
        <phase duration="42" state="GGggrrrrGGggrrrr"/>
        <phase duration="3"  state="yyyyrrrryyyyrrrr"/>
        <phase duration="42" state="rrrrGGggrrrrGGgg"/>
        <phase duration="3"  state="rrrryyyyrrrryyyy"/>
    </tlLogic>
    <tlLogic id="bottom0" type="static" programID="0" offset="0">
        <phase duration="82" state="G"/>
        <phase duration="3"  state="y"/>
        <phase duration="5"  state="r"/>
    </tlLogic>
    <tlLogic id="left0" type="static" programID="0" offset="0">
        <phase duration="82" state="G"/>
        <phase duration="3"  state="y"/>
        <phase duration="5"  state="r"/>
    </tlLogic>
    <tlLogic id="right0" type="static" programID="0" offset="0">
        <phase duration="82" state="G"/>
        <phase duration="3"  state="y"/>
        <phase duration="5"  state="r"/>
    </tlLogic>
    <tlLogic id="top0" type="static" programID="0" offset="0">
        <phase duration="82" state="G"/>
        <phase duration="3"  state="y"/>
        <phase duration="5"  state="r"/>
    </tlLogic>

    <junction id="A0" type="traffic_light" x="100.00" y="100.00" incLanes="N_in_0 E_in_0 S_in_0 W_in_0" intLanes=":A0_0_0 :A0_1_0 :A0_16_0 :A0_17_0 :A0_4_0 :A0_5_0 :A0_18_0 :A0_19_0 :A0_8_0 :A0_9_0 :A0_20_0 :A0_21_0 :A0_12_0 :A0_13_0 :A0_22_0 :A0_23_0" shape="96.80,107.20 103.20,107.20 103.64,104.98 104.20,104.20 104.98,103.64 105.98,103.31 107.20,103.20 107.20,96.80 104.98,96.36 104.20,95.80 103.64,95.02 103.31,94.02 103.20,92.80 96.80,92.80 96.36,95.02 95.80,95.80 95.02,96.36 94.02,96.69 92.80,96.80 92.80,103.20 95.02,103.64 95.80,104.20 96.36,104.98 96.69,105.98">
        <request index="0"  response="0000000000000000" foes="1000010000100000" cont="0"/>
        <request index="1"  response="0100000001000000" foes="0111110001100000" cont="0"/>
        <request index="2"  response="0100011101000000" foes="0110011111100000" cont="1"/>
        <request index="3"  response="0100001000010000" foes="0100001000010000" cont="1"/>
        <request index="4"  response="0000001000000000" foes="0100001000001000" cont="0"/>
        <request index="5"  response="0000011000000111" foes="1100011000000111" cont="0"/>
        <request index="6"  response="0111011000000110" foes="0111111000000110" cont="1"/>
        <request index="7"  response="0010000100000100" foes="0010000100000100" cont="1"/>
        <request index="8"  response="0000000000000000" foes="0010000010000100" cont="0"/>
        <request index="9"  response="0100000001000000" foes="0110000001111100" cont="0"/>
        <request index="10" response="0100000001000011" foes="1110000001100111" cont="1"/>
        <request index="11" response="0001000001000010" foes="0001000001000010" cont="1"/>
        <request index="12" response="0000000000000010" foes="0000100001000010" cont="0"/>
        <request index="13" response="0000011100000110" foes="0000011111000110" cont="0"/>
        <request index="14" response="0000011000110110" foes="0000011001111110" cont="1"/>
        <request index="15" response="0000010000100001" foes="0000010000100001" cont="1"/>
    </junction>
    <junction id="bottom0" type="traffic_light" x="100.00" y="0.00" incLanes="S_out_0" intLanes=":bottom0_0_0" shape="100.00,0.00 96.80,0.00 100.00,0.00" fringe="outer">
        <request index="0" response="0" foes="0" cont="0"/>
    </junction>
    <junction id="left0" type="traffic_light" x="0.00" y="100.00" incLanes="W_out_0" intLanes=":left0_0_0" shape="0.00,100.00 0.00,103.20 0.00,100.00" fringe="outer">
        <request index="0" response="0" foes="0" cont="0"/>
    </junction>
    <junction id="right0" type="traffic_light" x="200.00" y="100.00" incLanes="E_out_0" intLanes=":right0_0_0" shape="200.00,100.00 200.00,96.80 200.00,100.00" fringe="outer">
        <request index="0" response="0" foes="0" cont="0"/>
    </junction>
    <junction id="top0" type="traffic_light" x="100.00" y="200.00" incLanes="N_out_0" intLanes=":top0_0_0" shape="100.00,200.00 103.20,200.00 100.00,200.00" fringe="outer">
        <request index="0" response="0" foes="0" cont="0"/>
    </junction>

    <junction id=":A0_16_0" type="internal" x="99.04" y="103.20" incLanes=":A0_2_0 S_in_0" intLanes=":A0_5_0 :A0_6_0 :A0_7_0 :A0_8_0 :A0_9_0 :A0_13_0 :A0_14_0"/>
    <junction id=":A0_17_0" type="internal" x="99.20" y="106.00" incLanes=":A0_3_0 E_in_0 S_in_0 W_in_0" intLanes=":A0_4_0 :A0_9_0 :A0_14_0"/>
    <junction id=":A0_18_0" type="internal" x="103.20" y="100.96" incLanes=":A0_6_0 W_in_0" intLanes=":A0_1_0 :A0_2_0 :A0_9_0 :A0_10_0 :A0_11_0 :A0_12_0 :A0_13_0"/>
    <junction id=":A0_19_0" type="internal" x="106.00" y="100.80" incLanes=":A0_7_0 N_in_0 S_in_0 W_in_0" intLanes=":A0_2_0 :A0_8_0 :A0_13_0"/>
    <junction id=":A0_20_0" type="internal" x="100.96" y="96.80" incLanes=":A0_10_0 N_in_0" intLanes=":A0_0_0 :A0_1_0 :A0_5_0 :A0_6_0 :A0_13_0 :A0_14_0 :A0_15_0"/>
    <junction id=":A0_21_0" type="internal" x="100.80" y="94.00" incLanes=":A0_11_0 E_in_0 N_in_0 W_in_0" intLanes=":A0_1_0 :A0_6_0 :A0_12_0"/>
    <junction id=":A0_22_0" type="internal" x="96.80" y="99.04" incLanes=":A0_14_0 E_in_0" intLanes=":A0_1_0 :A0_2_0 :A0_3_0 :A0_4_0 :A0_5_0 :A0_9_0 :A0_10_0"/>
    <junction id=":A0_23_0" type="internal" x="94.00" y="99.20" incLanes=":A0_15_0 E_in_0 N_in_0 S_in_0" intLanes=":A0_0_0 :A0_5_0 :A0_10_0"/>

    <connection from="E_in" to="N_out" fromLane="0" toLane="0" via=":A0_4_0" tl="A0" linkIndex="4" dir="r" state="o"/>
    <connection from="E_in" to="W_out" fromLane="0" toLane="0" via=":A0_5_0" tl="A0" linkIndex="5" dir="s" state="o"/>
    <connection from="E_in" to="S_out" fromLane="0" toLane="0" via=":A0_6_0" tl="A0" linkIndex="6" dir="l" state="o"/>
    <connection from="E_in" to="E_out" fromLane="0" toLane="0" via=":A0_7_0" tl="A0" linkIndex="7" dir="t" state="o"/>
    <connection from="E_out" to="E_in" fromLane="0" toLane="0" via=":right0_0_0" tl="right0" linkIndex="0" dir="t" state="O"/>
    <connection from="N_in" to="W_out" fromLane="0" toLane="0" via=":A0_0_0" tl="A0" linkIndex="0" dir="r" state="O"/>
    <connection from="N_in" to="S_out" fromLane="0" toLane="0" via=":A0_1_0" tl="A0" linkIndex="1" dir="s" state="O"/>
    <connection from="N_in" to="E_out" fromLane="0" toLane="0" via=":A0_2_0" tl="A0" linkIndex="2" dir="l" state="o"/>
    <connection from="N_in" to="N_out" fromLane="0" toLane="0" via=":A0_3_0" tl="A0" linkIndex="3" dir="t" state="o"/>
    <connection from="N_out" to="N_in" fromLane="0" toLane="0" via=":top0_0_0" tl="top0" linkIndex="0" dir="t" state="O"/>
    <connection from="S_in" to="E_out" fromLane="0" toLane="0" via=":A0_8_0" tl="A0" linkIndex="8" dir="r" state="O"/>
    <connection from="S_in" to="N_out" fromLane="0" toLane="0" via=":A0_9_0" tl="A0" linkIndex="9" dir="s" state="O"/>
    <connection from="S_in" to="W_out" fromLane="0" toLane="0" via=":A0_10_0" tl="A0" linkIndex="10" dir="l" state="o"/>
    <connection from="S_in" to="S_out" fromLane="0" toLane="0" via=":A0_11_0" tl="A0" linkIndex="11" dir="t" state="o"/>
    <connection from="S_out" to="S_in" fromLane="0" toLane="0" via=":bottom0_0_0" tl="bottom0" linkIndex="0" dir="t" state="O"/>
    <connection from="W_in" to="S_out" fromLane="0" toLane="0" via=":A0_12_0" tl="A0" linkIndex="12" dir="r" state="o"/>
    <connection from="W_in" to="E_out" fromLane="0" toLane="0" via=":A0_13_0" tl="A0" linkIndex="13" dir="s" state="o"/>
    <connection from="W_in" to="N_out" fromLane="0" toLane="0" via=":A0_14_0" tl="A0" linkIndex="14" dir="l" state="o"/>
    <connection from="W_in" to="W_out" fromLane="0" toLane="0" via=":A0_15_0" tl="A0" linkIndex="15" dir="t" state="o"/>
    <connection from="W_out" to="W_in" fromLane="0" toLane="0" via=":left0_0_0" tl="left0" linkIndex="0" dir="t" state="O"/>

    <connection from=":A0_0" to="W_out" fromLane="0" toLane="0" dir="r" state="M"/>
    <connection from=":A0_1" to="S_out" fromLane="0" toLane="0" dir="s" state="M"/>
    <connection from=":A0_2" to="E_out" fromLane="0" toLane="0" via=":A0_16_0" dir="l" state="m"/>
    <connection from=":A0_16" to="E_out" fromLane="0" toLane="0" dir="l" state="M"/>
    <connection from=":A0_3" to="N_out" fromLane="0" toLane="0" via=":A0_17_0" dir="t" state="m"/>
    <connection from=":A0_17" to="N_out" fromLane="0" toLane="0" dir="t" state="M"/>
    <connection from=":A0_4" to="N_out" fromLane="0" toLane="0" dir="r" state="M"/>
    <connection from=":A0_5" to="W_out" fromLane="0" toLane="0" dir="s" state="M"/>
    <connection from=":A0_6" to="S_out" fromLane="0" toLane="0" via=":A0_18_0" dir="l" state="m"/>
    <connection from=":A0_18" to="S_out" fromLane="0" toLane="0" dir="l" state="M"/>
    <connection from=":A0_7" to="E_out" fromLane="0" toLane="0" via=":A0_19_0" dir="t" state="m"/>
    <connection from=":A0_19" to="E_out" fromLane="0" toLane="0" dir="t" state="M"/>
    <connection from=":A0_8" to="E_out" fromLane="0" toLane="0" dir="r" state="M"/>
    <connection from=":A0_9" to="N_out" fromLane="0" toLane="0" dir="s" state="M"/>
    <connection from=":A0_10" to="W_out" fromLane="0" toLane="0" via=":A0_20_0" dir="l" state="m"/>
    <connection from=":A0_20" to="W_out" fromLane="0" toLane="0" dir="l" state="M"/>
    <connection from=":A0_11" to="S_out" fromLane="0" toLane="0" via=":A0_21_0" dir="t" state="m"/>
    <connection from=":A0_21" to="S_out" fromLane="0" toLane="0" dir="t" state="M"/>
    <connection from=":A0_12" to="S_out" fromLane="0" toLane="0" dir="r" state="M"/>
    <connection from=":A0_13" to="E_out" fromLane="0" toLane="0" dir="s" state="M"/>
    <connection from=":A0_14" to="N_out" fromLane="0" toLane="0" via=":A0_22_0" dir="l" state="m"/>
    <connection from=":A0_22" to="N_out" fromLane="0" toLane="0" dir="l" state="M"/>
    <connection from=":A0_15" to="W_out" fromLane="0" toLane="0" via=":A0_23_0" dir="t" state="m"/>
    <connection from=":A0_23" to="W_out" fromLane="0" toLane="0" dir="t" state="M"/>
    <connection from=":bottom0_0" to="S_in" fromLane="0" toLane="0" dir="t" state="M"/>
    <connection from=":left0_0" to="W_in" fromLane="0" toLane="0" dir="t" state="M"/>
    <connection from=":right0_0" to="E_in" fromLane="0" toLane="0" dir="t" state="M"/>
    <connection from=":top0_0" to="N_in" fromLane="0" toLane="0" dir="t" state="M"/>

</net>
