<?xml version="1.0" encoding="UTF-8"?>

<!-- generated on 2026-02-15 02:51:36.130646 by Eclipse SUMO randomTrips.py v1_26_0+0000-fa7df22d7f1
<configuration>
    <net-file value="envi/network.net.xml"/>
    <route-file value="envi/routes.rou.xml"/>
    <period value="2.0"/>
    <binomial value="5"/>
</configuration>
-->

<routes xmlns:xsi="http://www.w3.org/2001/XMLSchema-instance" xsi:noNamespaceSchemaLocation="http://sumo.dlr.de/xsd/routes_file.xsd">
    <trip id="0" depart="0.00" from="N_in" to="E_out"/>
    <trip id="1" depart="1.00" from="N_in" to="E_out"/>
    <trip id="2" depart="1.00" from="E_in" to="S_out"/>
    <trip id="3" depart="2.00" from="W_in" to="S_out"/>
    <trip id="4" depart="3.00" from="E_in" to="W_out"/>
    <trip id="5" depart="6.00" from="E_in" to="N_out"/>
    <trip id="6" depart="6.00" from="E_in" to="E_out"/>
    <trip id="7" depart="10.00" from="N_in" to="N_out"/>
    <trip id="8" depart="14.00" from="E_in" to="E_out"/>
    <trip id="9" depart="15.00" from="N_in" to="W_out"/>
    <trip id="10" depart="16.00" from="S_in" to="S_out"/>
    <trip id="11" depart="20.00" from="N_in" to="E_out"/>
    <trip id="12" depart="21.00" from="W_in" to="W_out"/>
    <trip id="13" depart="21.00" from="N_in" to="E_out"/>
    <trip id="14" depart="26.00" from="S_in" to="E_out"/>
    <trip id="15" depart="27.00" from="E_in" to="S_out"/>
    <trip id="16" depart="28.00" from="N_in" to="N_out"/>
    <trip id="17" depart="29.00" from="N_in" to="N_out"/>
    <trip id="18" depart="32.00" from="W_in" to="W_out"/>
    <trip id="19" depart="33.00" from="N_in" to="W_out"/>
    <trip id="20" depart="36.00" from="S_in" to="S_out"/>
    <trip id="21" depart="37.00" from="E_in" to="S_out"/>
    <trip id="22" depart="41.00" from="N_in" to="W_out"/>
    <trip id="23" depart="42.00" from="E_in" to="N_out"/>
    <trip id="24" depart="44.00" from="W_in" to="N_out"/>
    <trip id="25" depart="47.00" from="N_in" to="N_out"/>
    <trip id="26" depart="47.00" from="W_in" to="S_out"/>
    <trip id="27" depart="48.00" from="E_in" to="W_out"/>
    <trip id="28" depart="53.00" from="S_in" to="N_out"/>
    <trip id="29" depart="56.00" from="E_in" to="N_out"/>
    <trip id="30" depart="61.00" from="W_in" to="S_out"/>
    <trip id="31" depart="62.00" from="S_in" to="N_out"/>
    <trip id="32" depart="66.00" from="N_in" to="N_out"/>
    <trip id="33" depart="68.00" from="S_in" to="S_out"/>
    <trip id="34" depart="69.00" from="E_in" to="N_out"/>
    <trip id="35" depart="69.00" from="N_in" to="S_out"/>
    <trip id="36" depart="71.00" from="W_in" to="W_out"/>
    <trip id="37" depart="72.00" from="E_in" to="W_out"/>
    <trip id="38" depart="76.00" from="N_in" to="N_out"/>
    <trip id="39" depart="78.00" from="N_in" to="S_out"/>
    <trip id="40" depart="80.00" from="N_in" to="W_out"/>
    <trip id="41" depart="82.00" from="N_in" to="S_out"/>
    <trip id="42" depart="83.00" from="N_in" to="S_out"/>
    <trip id="43" depart="83.00" from="S_in" to="E_out"/>
    <trip id="44" depart="84.00" from="N_in" to="E_out"/>
    <trip id="45" depart="85.00" from="E_in" to="S_out"/>
    <trip id="46" depart="87.00" from="E_in" to="E_out"/>
    <trip id="47" depart="89.00" from="N_in" to="S_out"/>
    <trip id="48" depart="90.00" from="S_in" to="S_out"/>
    <trip id="49" depart="97.00" from="W_in" to="E_out"/>
    <trip id="50" depart="97.00" from="W_in" to="E_out"/>
    <trip id="51" depart="99.00" from="W_in" to="E_out"/>
    <trip id="52" depart="100.00" from="E_in" to="S_out"/>
    <trip id="53" depart="106.00" from="S_in" to="N_out"/>
    <trip id="54" depart="108.00" from="W_in" to="N_out"/>
    <trip id="55" depart="109.00" from="S_in" to="E_out"/>
    <trip id="56" depart="114.00" from="E_in" to="N_out"/>
    <trip id="57" depart="117.00" from="E_in" to="N_out"/>
    <trip id="58" depart="119.00" from="E_in" to="N_out"/>
    <trip id="59" depart="120.00" from="W_in" to="W_out"/>
    <trip id="60" depart="121.00" from="W_in" to="N_out"/>
    <trip id="61" depart="123.00" from="N_in" to="N_out"/>
    <trip id="62" depart="130.00" from="W_in" to="W_out"/>
    <trip id="63" depart="138.00" from="S_in" to="S_out"/>
    <trip id="64" depart="139.00" from="S_in" to="S_out"/>
    <trip id="65" depart="144.00" from="E_in" to="S_out"/>
    <trip id="66" depart="145.00" from="S_in" to="W_out"/>
    <trip id="67" depart="146.00" from="W_in" to="N_out"/>
    <trip id="68" depart="147.00" from="W_in" to="S_out"/>
    <trip id="69" depart="148.00" from="W_in" to="W_out"/>
    <trip id="70" depart="153.00" from="S_in" to="N_out"/>
    <trip id="71" depart="157.00" from="N_in" to="S_out"/>
    <trip id="72" depart="162.00" from="S_in" to="N_out"/>
    <trip id="73" depart="164.00" from="W_in" to="S_out"/>
    <trip id="74" depart="164.00" from="W_in" to="W_out"/>
    <trip id="75" depart="166.00" from="W_in" to="E_out"/>
    <trip id="76" depart="167.00" from="N_in" to="N_out"/>
    <trip id="77" depart="168.00" from="N_in" to="N_out"/>
    <trip id="78" depart="168.00" from="S_in" to="S_out"/>
    <trip id="79" depart="171.00" from="W_in" to="E_out"/>
    <trip id="80" depart="171.00" from="W_in" to="E_out"/>
    <trip id="81" depart="172.00" from="W_in" to="E_out"/>
    <trip id="82" depart="173.00" from="E_in" to="W_out"/>
    <trip id="83" depart="174.00" from="S_in" to="S_out"/>
    <trip id="84" depart="176.00" from="W_in" to="W_out"/>
    <trip id="85" depart="177.00" from="N_in" to="N_out"/>
    <trip id="86" depart="177.00" from="E_in" to="S_out"/>
    <trip id="87" depart="178.00" from="N_in" to="S_out"/>
    <trip id="88" depart="179.00" from="S_in" to="W_out"/>
    <trip id="89" depart="181.00" from="N_in" to="S_out"/>
    <trip id="90" depart="182.00" from="W_in" to="E_out"/>
    <trip id="91" depart="182.00" from="S_in" to="W_out"/>
    <trip id="92" depart="188.00" from="W_in" to="W_out"/>
    <trip id="93" depart="189.00" from="W_in" to="S_out"/>
    <trip id="94" depart="190.00" from="S_in" to="E_out"/>
    <trip id="95" depart="191.00" from="E_in" to="E_out"/>
    <trip id="96" depart="194.00" from="N_in" to="S_out"/>
    <trip id="97" depart="194.00" from="N_in" to="E_out"/>
    <trip id="98" depart="195.00" from="S_in" to="E_out"/>
    <trip id="99" depart="196.00" from="W_in" to="E_out"/>
    <trip id="100" depart="197.00" from="W_in" to="W_out"/>
    <trip id="101" depart="198.00" from="N_in" to="W_out"/>
    <trip id="102" depart="199.00" from="W_in" to="E_out"/>
    <trip id="103" depart="206.00" from="N_in" to="N_out"/>
    <trip id="104" depart="206.00" from="S_in" to="N_out"/>
    <trip id="105" depart="206.00" from="W_in" to="E_out"/>
    <trip id="106" depart="209.00" from="E_in" to="W_out"/>
    <trip id="107" depart="213.00" from="E_in" to="S_out"/>
    <trip id="108" depart="220.00" from="W_in" to="E_out"/>
    <trip id="109" depart="220.00" from="N_in" to="W_out"/>
    <trip id="110" depart="230.00" from="E_in" to="S_out"/>
    <trip id="111" depart="231.00" from="W_in" to="W_out"/>
    <trip id="112" depart="233.00" from="E_in" to="N_out"/>
    <trip id="113" depart="235.00" from="N_in" to="W_out"/>
    <trip id="114" depart="236.00" from="S_in" to="E_out"/>
    <trip id="115" depart="237.00" from="W_in" to="E_out"/>
    <trip id="116" depart="239.00" from="W_in" to="N_out"/>
    <trip id="117" depart="240.00" from="S_in" to="W_out"/>
    <trip id="118" depart="242.00" from="W_in" to="N_out"/>
    <trip id="119" depart="242.00" from="E_in" to="E_out"/>
    <trip id="120" depart="247.00" from="S_in" to="W_out"/>
    <trip id="121" depart="248.00" from="S_in" to="N_out"/>
    <trip id="122" depart="249.00" from="W_in" to="N_out"/>
    <trip id="123" depart="250.00" from="S_in" to="N_out"/>
    <trip id="124" depart="251.00" from="E_in" to="W_out"/>
    <trip id="125" depart="257.00" from="S_in" to="W_out"/>
    <trip id="126" depart="258.00" from="S_in" to="W_out"/>
    <trip id="127" depart="260.00" from="S_in" to="N_out"/>
    <trip id="128" depart="261.00" from="N_in" to="W_out"/>
    <trip id="129" depart="262.00" from="W_in" to="S_out"/>
    <trip id="130" depart="264.00" from="E_in" to="E_out"/>
    <trip id="131" depart="269.00" from="E_in" to="S_out"/>
    <trip id="132" depart="272.00" from="E_in" to="N_out"/>
    <trip id="133" depart="275.00" from="N_in" to="N_out"/>
    <trip id="134" depart="277.00" from="W_in" to="S_out"/>
    <trip id="135" depart="278.00" from="N_in" to="W_out"/>
    <trip id="136" depart="281.00" from="S_in" to="W_out"/>
    <trip id="137" depart="284.00" from="E_in" to="N_out"/>
    <trip id="138" depart="289.00" from="N_in" to="W_out"/>
    <trip id="139" depart="291.00" from="W_in" to="E_out"/>
    <trip id="140" depart="291.00" from="N_in" to="E_out"/>
    <trip id="141" depart="293.00" from="E_in" to="E_out"/>
    <trip id="142" depart="303.00" from="N_in" to="S_out"/>
    <trip id="143" depart="304.00" from="S_in" to="W_out"/>
    <trip id="144" depart="306.00" from="S_in" to="S_out"/>
    <trip id="145" depart="309.00" from="S_in" to="E_out"/>
    <trip id="146" depart="314.00" from="S_in" to="E_out"/>
    <trip id="147" depart="316.00" from="S_in" to="S_out"/>
    <trip id="148" depart="316.00" from="E_in" to="N_out"/>
    <trip id="149" depart="321.00" from="N_in" to="S_out"/>
    <trip id="150" depart="321.00" from="S_in" to="E_out"/>
    <trip id="151" depart="323.00" from="S_in" to="W_out"/>
    <trip id="152" depart="324.00" from="N_in" to="W_out"/>
    <trip id="153" depart="325.00" from="N_in" to="E_out"/>
    <trip id="154" depart="325.00" from="W_in" to="E_out"/>
    <trip id="155" depart="330.00" from="E_in" to="N_out"/>
    <trip id="156" depart="333.00" from="E_in" to="E_out"/>
    <trip id="157" depart="333.00" from="S_in" to="S_out"/>
    <trip id="158" depart="333.00" from="S_in" to="N_out"/>
    <trip id="159" depart="334.00" from="S_in" to="N_out"/>
    <trip id="160" depart="336.00" from="W_in" to="W_out"/>
    <trip id="161" depart="342.00" from="S_in" to="E_out"/>
    <trip id="162" depart="345.00" from="W_in" to="W_out"/>
    <trip id="163" depart="348.00" from="W_in" to="N_out"/>
    <trip id="164" depart="354.00" from="E_in" to="W_out"/>
    <trip id="165" depart="356.00" from="S_in" to="N_out"/>
    <trip id="166" depart="357.00" from="S_in" to="E_out"/>
    <trip id="167" depart="358.00" from="W_in" to="S_out"/>
    <trip id="168" depart="359.00" from="E_in" to="E_out"/>
    <trip id="169" depart="362.00" from="N_in" to="S_out"/>
    <trip id="170" depart="362.00" from="E_in" to="E_out"/>
    <trip id="171" depart="363.00" from="S_in" to="E_out"/>
    <trip id="172" depart="364.00" from="E_in" to="W_out"/>
    <trip id="173" depart="365.00" from="W_in" to="N_out"/>
    <trip id="174" depart="366.00" from="E_in" to="E_out"/>
    <trip id="175" depart="368.00" from="N_in" to="W_out"/>
    <trip id="176" depart="369.00" from="N_in" to="W_out"/>
    <trip id="177" depart="371.00" from="S_in" to="W_out"/>
    <trip id="178" depart="371.00" from="E_in" to="S_out"/>
    <trip id="179" depart="372.00" from="N_in" to="N_out"/>
    <trip id="180" depart="374.00" from="N_in" to="E_out"/>
    <trip id="181" depart="375.00" from="W_in" to="W_out"/>
    <trip id="182" depart="376.00" from="N_in" to="N_out"/>
    <trip id="183" depart="377.00" from="N_in" to="E_out"/>
    <trip id="184" depart="387.00" from="W_in" to="N_out"/>
    <trip id="185" depart="389.00" from="W_in" to="S_out"/>
    <trip id="186" depart="390.00" from="W_in" to="S_out"/>
    <trip id="187" depart="391.00" from="N_in" to="S_out"/>
    <trip id="188" depart="393.00" from="E_in" to="N_out"/>
    <trip id="189" depart="399.00" from="S_in" to="E_out"/>
    <trip id="190" depart="400.00" from="E_in" to="W_out"/>
    <trip id="191" depart="404.00" from="E_in" to="E_out"/>
    <trip id="192" depart="408.00" from="N_in" to="E_out"/>
    <trip id="193" depart="410.00" from="E_in" to="W_out"/>
    <trip id="194" depart="413.00" from="S_in" to="S_out"/>
    <trip id="195" depart="417.00" from="N_in" to="N_out"/>
    <trip id="196" depart="419.00" from="W_in" to="W_out"/>
    <trip id="197" depart="423.00" from="S_in" to="N_out"/>
    <trip id="198" depart="424.00" from="W_in" to="S_out"/>
    <trip id="199" depart="425.00" from="S_in" to="E_out"/>
    <trip id="200" depart="427.00" from="E_in" to="W_out"/>
    <trip id="201" depart="428.00" from="W_in" to="E_out"/>
    <trip id="202" depart="431.00" from="N_in" to="E_out"/>
    <trip id="203" depart="432.00" from="S_in" to="W_out"/>
    <trip id="204" depart="433.00" from="N_in" to="S_out"/>
    <trip id="205" depart="435.00" from="S_in" to="N_out"/>
    <trip id="206" depart="436.00" from="E_in" to="W_out"/>
    <trip id="207" depart="438.00" from="S_in" to="S_out"/>
    <trip id="208" depart="440.00" from="W_in" to="W_out"/>
    <trip id="209" depart="443.00" from="E_in" to="N_out"/>
    <trip id="210" depart="444.00" from="E_in" to="W_out"/>
    <trip id="211" depart="445.00" from="S_in" to="S_out"/>
    <trip id="212" depart="447.00" from="S_in" to="S_out"/>
    <trip id="213" depart="447.00" from="E_in" to="N_out"/>
    <trip id="214" depart="451.00" from="W_in" to="N_out"/>
    <trip id="215" depart="452.00" from="S_in" to="S_out"/>
    <trip id="216" depart="452.00" from="N_in" to="N_out"/>
    <trip id="217" depart="454.00" from="W_in" to="E_out"/>
    <trip id="218" depart="457.00" from="N_in" to="S_out"/>
    <trip id="219" depart="458.00" from="N_in" to="N_out"/>
    <trip id="220" depart="459.00" from="E_in" to="S_out"/>
    <trip id="221" depart="461.00" from="N_in" to="E_out"/>
    <trip id="222" depart="462.00" from="S_in" to="W_out"/>
    <trip id="223" depart="463.00" from="W_in" to="S_out"/>
    <trip id="224" depart="463.00" from="W_in" to="W_out"/>
    <trip id="225" depart="464.00" from="E_in" to="E_out"/>
    <trip id="226" depart="465.00" from="S_in" to="N_out"/>
    <trip id="227" depart="467.00" from="E_in" to="W_out"/>
    <trip id="228" depart="470.00" from="W_in" to="N_out"/>
    <trip id="229" depart="470.00" from="E_in" to="N_out"/>
    <trip id="230" depart="471.00" from="N_in" to="N_out"/>
    <trip id="231" depart="472.00" from="W_in" to="W_out"/>
    <trip id="232" depart="474.00" from="E_in" to="W_out"/>
    <trip id="233" depart="475.00" from="N_in" to="E_out"/>
    <trip id="234" depart="476.00" from="S_in" to="E_out"/>
    <trip id="235" depart="477.00" from="S_in" to="E_out"/>
    <trip id="236" depart="478.00" from="N_in" to="E_out"/>
    <trip id="237" depart="482.00" from="W_in" to="S_out"/>
    <trip id="238" depart="484.00" from="W_in" to="E_out"/>
    <trip id="239" depart="486.00" from="S_in" to="W_out"/>
    <trip id="240" depart="488.00" from="E_in" to="E_out"/>
    <trip id="241" depart="488.00" from="W_in" to="E_out"/>
    <trip id="242" depart="489.00" from="S_in" to="W_out"/>
    <trip id="243" depart="496.00" from="S_in" to="W_out"/>
    <trip id="244" depart="498.00" from="S_in" to="S_out"/>
    <trip id="245" depart="499.00" from="N_in" to="E_out"/>
    <trip id="246" depart="499.00" from="N_in" to="S_out"/>
    <trip id="247" depart="502.00" from="W_in" to="N_out"/>
    <trip id="248" depart="502.00" from="E_in" to="N_out"/>
    <trip id="249" depart="503.00" from="S_in" to="S_out"/>
    <trip id="250" depart="503.00" from="W_in" to="E_out"/>
    <trip id="251" depart="506.00" from="S_in" to="W_out"/>
    <trip id="252" depart="507.00" from="E_in" to="N_out"/>
    <trip id="253" depart="508.00" from="W_in" to="N_out"/>
    <trip id="254" depart="508.00" from="S_in" to="E_out"/>
    <trip id="255" depart="510.00" from="W_in" to="S_out"/>
    <trip id="256" depart="510.00" from="N_in" to="S_out"/>
    <trip id="257" depart="513.00" from="W_in" to="S_out"/>
    <trip id="258" depart="517.00" from="N_in" to="N_out"/>
    <trip id="259" depart="522.00" from="N_in" to="E_out"/>
    <trip id="260" depart="522.00" from="W_in" to="N_out"/>
    <trip id="261" depart="523.00" from="W_in" to="N_out"/>
    <trip id="262" depart="524.00" from="W_in" to="E_out"/>
    <trip id="263" depart="528.00" from="E_in" to="W_out"/>
    <trip id="264" depart="531.00" from="N_in" to="S_out"/>
    <trip id="265" depart="534.00" from="W_in" to="W_out"/>
    <trip id="266" depart="535.00" from="W_in" to="S_out"/>
    <trip id="267" depart="535.00" from="N_in" to="W_out"/>
    <trip id="268" depart="539.00" from="W_in" to="S_out"/>
    <trip id="269" depart="543.00" from="S_in" to="S_out"/>
    <trip id="270" depart="546.00" from="E_in" to="N_out"/>
    <trip id="271" depart="547.00" from="N_in" to="S_out"/>
    <trip id="272" depart="549.00" from="W_in" to="S_out"/>
    <trip id="273" depart="550.00" from="W_in" to="E_out"/>
    <trip id="274" depart="553.00" from="N_in" to="W_out"/>
    <trip id="275" depart="554.00" from="S_in" to="S_out"/>
    <trip id="276" depart="554.00" from="E_in" to="N_out"/>
    <trip id="277" depart="555.00" from="N_in" to="W_out"/>
    <trip id="278" depart="561.00" from="W_in" to="N_out"/>
    <trip id="279" depart="562.00" from="W_in" to="S_out"/>
    <trip id="280" depart="562.00" from="S_in" to="N_out"/>
    <trip id="281" depart="567.00" from="N_in" to="E_out"/>
    <trip id="282" depart="568.00" from="S_in" to="W_out"/>
    <trip id="283" depart="569.00" from="S_in" to="S_out"/>
    <trip id="284" depart="570.00" from="E_in" to="E_out"/>
    <trip id="285" depart="571.00" from="W_in" to="E_out"/>
    <trip id="286" depart="573.00" from="W_in" to="E_out"/>
    <trip id="287" depart="575.00" from="W_in" to="E_out"/>
    <trip id="288" depart="577.00" from="S_in" to="W_out"/>
    <trip id="289" depart="578.00" from="N_in" to="N_out"/>
    <trip id="290" depart="580.00" from="S_in" to="E_out"/>
    <trip id="291" depart="581.00" from="S_in" to="E_out"/>
    <trip id="292" depart="582.00" from="N_in" to="E_out"/>
    <trip id="293" depart="583.00" from="E_in" to="S_out"/>
    <trip id="294" depart="585.00" from="E_in" to="S_out"/>
    <trip id="295" depart="587.00" from="E_in" to="N_out"/>
    <trip id="296" depart="590.00" from="E_in" to="E_out"/>
    <trip id="297" depart="595.00" from="W_in" to="W_out"/>
    <trip id="298" depart="605.00" from="E_in" to="S_out"/>
    <trip id="299" depart="607.00" from="W_in" to="E_out"/>
    <trip id="300" depart="611.00" from="N_in" to="S_out"/>
    <trip id="301" depart="616.00" from="W_in" to="S_out"/>
    <trip id="302" depart="618.00" from="S_in" to="N_out"/>
    <trip id="303" depart="619.00" from="E_in" to="E_out"/>
    <trip id="304" depart="620.00" from="S_in" to="N_out"/>
    <trip id="305" depart="624.00" from="W_in" to="E_out"/>
    <trip id="306" depart="625.00" from="E_in" to="S_out"/>
    <trip id="307" depart="628.00" from="E_in" to="W_out"/>
    <trip id="308" depart="630.00" from="S_in" to="S_out"/>
    <trip id="309" depart="631.00" from="W_in" to="E_out"/>
    <trip id="310" depart="631.00" from="W_in" to="N_out"/>
    <trip id="311" depart="635.00" from="S_in" to="S_out"/>
    <trip id="312" depart="640.00" from="E_in" to="S_out"/>
    <trip id="313" depart="643.00" from="E_in" to="E_out"/>
    <trip id="314" depart="647.00" from="E_in" to="E_out"/>
    <trip id="315" depart="647.00" from="S_in" to="N_out"/>
    <trip id="316" depart="654.00" from="N_in" to="E_out"/>
    <trip id="317" depart="655.00" from="W_in" to="N_out"/>
    <trip id="318" depart="660.00" from="S_in" to="E_out"/>
    <trip id="319" depart="663.00" from="E_in" to="S_out"/>
    <trip id="320" depart="663.00" from="S_in" to="E_out"/>
    <trip id="321" depart="664.00" from="S_in" to="S_out"/>
    <trip id="322" depart="665.00" from="N_in" to="W_out"/>
    <trip id="323" depart="669.00" from="N_in" to="S_out"/>
    <trip id="324" depart="669.00" from="W_in" to="S_out"/>
    <trip id="325" depart="672.00" from="S_in" to="E_out"/>
    <trip id="326" depart="673.00" from="E_in" to="N_out"/>
    <trip id="327" depart="675.00" from="S_in" to="S_out"/>
    <trip id="328" depart="683.00" from="E_in" to="E_out"/>
    <trip id="329" depart="683.00" from="E_in" to="E_out"/>
    <trip id="330" depart="683.00" from="N_in" to="W_out"/>
    <trip id="331" depart="686.00" from="S_in" to="S_out"/>
    <trip id="332" depart="687.00" from="E_in" to="E_out"/>
    <trip id="333" depart="688.00" from="E_in" to="N_out"/>
    <trip id="334" depart="691.00" from="N_in" to="W_out"/>
    <trip id="335" depart="694.00" from="E_in" to="E_out"/>
    <trip id="336" depart="696.00" from="W_in" to="E_out"/>
    <trip id="337" depart="696.00" from="S_in" to="W_out"/>
    <trip id="338" depart="696.00" from="W_in" to="N_out"/>
    <trip id="339" depart="701.00" from="N_in" to="S_out"/>
    <trip id="340" depart="703.00" from="W_in" to="N_out"/>
    <trip id="341" depart="705.00" from="E_in" to="S_out"/>
    <trip id="342" depart="709.00" from="N_in" to="E_out"/>
    <trip id="343" depart="712.00" from="W_in" to="N_out"/>
    <trip id="344" depart="714.00" from="E_in" to="W_out"/>
    <trip id="345" depart="718.00" from="E_in" to="E_out"/>
    <trip id="346" depart="721.00" from="S_in" to="S_out"/>
    <trip id="347" depart="722.00" from="E_in" to="E_out"/>
    <trip id="348" depart="722.00" from="W_in" to="S_out"/>
    <trip id="349" depart="722.00" from="N_in" to="W_out"/>
    <trip id="350" depart="722.00" from="N_in" to="E_out"/>
    <trip id="351" depart="724.00" from="S_in" to="W_out"/>
    <trip id="352" depart="729.00" from="W_in" to="W_out"/>
    <trip id="353" depart="729.00" from="W_in" to="W_out"/>
    <trip id="354" depart="730.00" from="N_in" to="N_out"/>
    <trip id="355" depart="730.00" from="N_in" to="N_out"/>
    <trip id="356" depart="735.00" from="E_in" to="S_out"/>
    <trip id="357" depart="739.00" from="W_in" to="E_out"/>
    <trip id="358" depart="741.00" from="N_in" to="W_out"/>
    <trip id="359" depart="743.00" from="W_in" to="S_out"/>
    <trip id="360" depart="746.00" from="E_in" to="W_out"/>
    <trip id="361" depart="747.00" from="E_in" to="E_out"/>
    <trip id="362" depart="748.00" from="S_in" to="S_out"/>
    <trip id="363" depart="753.00" from="E_in" to="N_out"/>
    <trip id="364" depart="753.00" from="S_in" to="N_out"/>
    <trip id="365" depart="754.00" from="W_in" to="W_out"/>
    <trip id="366" depart="757.00" from="W_in" to="E_out"/>
    <trip id="367" depart="757.00" from="S_in" to="W_out"/>
    <trip id="368" depart="759.00" from="W_in" to="E_out"/>
    <trip id="369" depart="759.00" from="W_in" to="E_out"/>
    <trip id="370" depart="761.00" from="E_in" to="N_out"/>
    <trip id="371" depart="762.00" from="S_in" to="S_out"/>
    <trip id="372" depart="771.00" from="W_in" to="S_out"/>
    <trip id="373" depart="772.00" from="N_in" to="E_out"/>
    <trip id="374" depart="773.00" from="N_in" to="W_out"/>
    <trip id="375" depart="776.00" from="E_in" to="W_out"/>
    <trip id="376" depart="778.00" from="W_in" to="N_out"/>
    <trip id="377" depart="778.00" from="S_in" to="E_out"/>
    <trip id="378" depart="779.00" from="S_in" to="N_out"/>
    <trip id="379" depart="780.00" from="S_in" to="E_out"/>
    <trip id="380" depart="781.00" from="S_in" to="W_out"/>
    <trip id="381" depart="783.00" from="W_in" to="N_out"/>
    <trip id="382" depart="783.00" from="S_in" to="N_out"/>
    <trip id="383" depart="784.00" from="N_in" to="W_out"/>
    <trip id="384" depart="785.00" from="W_in" to="E_out"/>
    <trip id="385" depart="786.00" from="W_in" to="W_out"/>
    <trip id="386" depart="786.00" from="S_in" to="E_out"/>
    <trip id="387" depart="787.00" from="E_in" to="S_out"/>
    <trip id="388" depart="788.00" from="S_in" to="S_out"/>
    <trip id="389" depart="789.00" from="E_in" to="N_out"/>
    <trip id="390" depart="789.00" from="S_in" to="E_out"/>
    <trip id="391" depart="790.00" from="W_in" to="S_out"/>
    <trip id="392" depart="791.00" from="N_in" to="W_out"/>
    <trip id="393" depart="792.00" from="E_in" to="S_out"/>
    <trip id="394" depart="795.00" from="S_in" to="N_out"/>
    <trip id="395" depart="796.00" from="N_in" to="W_out"/>
    <trip id="396" depart="808.00" from="W_in" to="E_out"/>
    <trip id="397" depart="810.00" from="W_in" to="W_out"/>
    <trip id="398" depart="811.00" from="S_in" to="N_out"/>
    <trip id="399" depart="813.00" from="W_in" to="S_out"/>
    <trip id="400" depart="814.00" from="N_in" to="N_out"/>
    <trip id="401" depart="816.00" from="S_in" to="E_out"/>
    <trip id="402" depart="826.00" from="W_in" to="E_out"/>
    <trip id="403" depart="827.00" from="S_in" to="E_out"/>
    <trip id="404" depart="828.00" from="E_in" to="S_out"/>
    <trip id="405" depart="828.00" from="W_in" to="S_out"/>
    <trip id="406" depart="829.00" from="N_in" to="E_out"/>
    <trip id="407" depart="831.00" from="N_in" to="N_out"/>
    <trip id="408" depart="831.00" from="N_in" to="S_out"/>
    <trip id="409" depart="838.00" from="E_in" to="S_out"/>
    <trip id="410" depart="840.00" from="E_in" to="N_out"/>
    <trip id="411" depart="841.00" from="S_in" to="N_out"/>
    <trip id="412" depart="841.00" from="E_in" to="N_out"/>
    <trip id="413" depart="846.00" from="W_in" to="S_out"/>
    <trip id="414" depart="848.00" from="N_in" to="N_out"/>
    <trip id="415" depart="850.00" from="N_in" to="S_out"/>
    <trip id="416" depart="854.00" from="W_in" to="S_out"/>
    <trip id="417" depart="854.00" from="N_in" to="E_out"/>
    <trip id="418" depart="857.00" from="S_in" to="S_out"/>
    <trip id="419" depart="859.00" from="S_in" to="N_out"/>
    <trip id="420" depart="860.00" from="N_in" to="E_out"/>
    <trip id="421" depart="866.00" from="N_in" to="N_out"/>
    <trip id="422" depart="872.00" from="W_in" to="S_out"/>
    <trip id="423" depart="874.00" from="E_in" to="W_out"/>
    <trip id="424" depart="875.00" from="W_in" to="W_out"/>
    <trip id="425" depart="875.00" from="E_in" to="E_out"/>
    <trip id="426" depart="878.00" from="E_in" to="W_out"/>
    <trip id="427" depart="879.00" from="S_in" to="W_out"/>
    <trip id="428" depart="883.00" from="E_in" to="S_out"/>
    <trip id="429" depart="884.00" from="S_in" to="N_out"/>
    <trip id="430" depart="890.00" from="W_in" to="E_out"/>
    <trip id="431" depart="891.00" from="S_in" to="W_out"/>
    <trip id="432" depart="892.00" from="N_in" to="W_out"/>
    <trip id="433" depart="893.00" from="W_in" to="S_out"/>
    <trip id="434" depart="894.00" from="N_in" to="E_out"/>
    <trip id="435" depart="894.00" from="W_in" to="W_out"/>
    <trip id="436" depart="895.00" from="S_in" to="W_out"/>
    <trip id="437" depart="896.00" from="E_in" to="E_out"/>
    <trip id="438" depart="898.00" from="E_in" to="W_out"/>
    <trip id="439" depart="903.00" from="W_in" to="N_out"/>
    <trip id="440" depart="904.00" from="W_in" to="S_out"/>
    <trip id="441" depart="905.00" from="S_in" to="N_out"/>
    <trip id="442" depart="908.00" from="E_in" to="E_out"/>
    <trip id="443" depart="909.00" from="E_in" to="W_out"/>
    <trip id="444" depart="914.00" from="W_in" to="N_out"/>
    <trip id="445" depart="914.00" from="W_in" to="N_out"/>
    <trip id="446" depart="917.00" from="S_in" to="N_out"/>
    <trip id="447" depart="921.00" from="W_in" to="W_out"/>
    <trip id="448" depart="923.00" from="S_in" to="W_out"/>
    <trip id="449" depart="923.00" from="N_in" to="W_out"/>
    <trip id="450" depart="923.00" from="N_in" to="E_out"/>
    <trip id="451" depart="924.00" from="S_in" to="S_out"/>
    <trip id="452" depart="926.00" from="S_in" to="N_out"/>
    <trip id="453" depart="927.00" from="E_in" to="W_out"/>
    <trip id="454" depart="927.00" from="E_in" to="W_out"/>
    <trip id="455" depart="928.00" from="E_in" to="S_out"/>
    <trip id="456" depart="929.00" from="S_in" to="E_out"/>
    <trip id="457" depart="929.00" from="N_in" to="W_out"/>
    <trip id="458" depart="935.00" from="E_in" to="W_out"/>
    <trip id="459" depart="936.00" from="N_in" to="E_out"/>
    <trip id="460" depart="936.00" from="S_in" to="W_out"/>
    <trip id="461" depart="939.00" from="E_in" to="N_out"/>
    <trip id="462" depart="940.00" from="E_in" to="E_out"/>
    <trip id="463" depart="940.00" from="N_in" to="W_out"/>
    <trip id="464" depart="943.00" from="S_in" to="N_out"/>
    <trip id="465" depart="944.00" from="S_in" to="W_out"/>
    <trip id="466" depart="946.00" from="S_in" to="W_out"/>
    <trip id="467" depart="950.00" from="E_in" to="W_out"/>
    <trip id="468" depart="952.00" from="W_in" to="N_out"/>
    <trip id="469" depart="955.00" from="W_in" to="E_out"/>
    <trip id="470" depart="956.00" from="S_in" to="N_out"/>
    <trip id="471" depart="957.00" from="S_in" to="W_out"/>
    <trip id="472" depart="958.00" from="N_in" to="N_out"/>
    <trip id="473" depart="958.00" from="N_in" to="W_out"/>
    <trip id="474" depart="960.00" from="W_in" to="N_out"/>
    <trip id="475" depart="960.00" from="N_in" to="N_out"/>
    <trip id="476" depart="961.00" from="W_in" to="S_out"/>
    <trip id="477" depart="961.00" from="W_in" to="S_out"/>
    <trip id="478" depart="963.00" from="S_in" to="E_out"/>
    <trip id="479" depart="966.00" from="N_in" to="N_out"/>
    <trip id="480" depart="968.00" from="W_in" to="N_out"/>
    <trip id="481" depart="969.00" from="W_in" to="N_out"/>
    <trip id="482" depart="972.00" from="W_in" to="E_out"/>
    <trip id="483" depart="976.00" from="N_in" to="N_out"/>
    <trip id="484" depart="978.00" from="N_in" to="E_out"/>
    <trip id="485" depart="979.00" from="N_in" to="N_out"/>
    <trip id="486" depart="981.00" from="S_in" to="W_out"/>
    <trip id="487" depart="985.00" from="E_in" to="S_out"/>
    <trip id="488" depart="986.00" from="S_in" to="N_out"/>
    <trip id="489" depart="987.00" from="S_in" to="E_out"/>
    <trip id="490" depart="989.00" from="S_in" to="N_out"/>
    <trip id="491" depart="991.00" from="E_in" to="N_out"/>
    <trip id="492" depart="992.00" from="W_in" to="W_out"/>
    <trip id="493" depart="992.00" from="N_in" to="W_out"/>
    <trip id="494" depart="994.00" from="W_in" to="W_out"/>